
**** 02/20/23 23:47:46 ********* PSpice 9.2 (Mar 2000) ******** ID# 1 ********

 ** Profile: "SCHEMATIC1-Pulse-HW01"  [ D:\Drive E\University\TA\Pulse Technique\HWs\HW01\Simulation\pulse-hw01-SCHEMATIC1-Pulse-HW01


 ****     CIRCUIT DESCRIPTION


******************************************************************************




** Creating circuit file "pulse-hw01-SCHEMATIC1-Pulse-HW01.sim.cir" 
** WARNING: THIS AUTOMATICALLY GENERATED FILE MAY BE OVERWRITTEN BY SUBSEQUENT SIMULATIONS

*Libraries: 
* Local Libraries :
* From [PSPICE NETLIST] section of C:\Program Files\Orcad\PSpice\PSpice.ini file:
.lib "nom.lib" 

*Analysis directives: 
.TRAN  0 10s 0 
.PROBE V(*) I(*) W(*) D(*) NOISE(*) 
.INC ".\pulse-hw01-SCHEMATIC1.net" 



**** INCLUDING pulse-hw01-SCHEMATIC1.net ****
* source PULSE-HW01
V_V1         N00727 0  
+PULSE -1 5 1n 1n 1n 1u 1n
R_R1         N00727 N00781  1k  
R_R2         N00811 N00781  1k  
R_R3         0 N00811  1k  
R_R4         0 N00781  1k  
C_C2         N00727 N00811  2n  

**** RESUMING pulse-hw01-SCHEMATIC1-Pulse-HW01.sim.cir ****
.END

WARNING -- Pulse Period < (Rise Time + Fall Time + Pulse Width) for V_V1
WARNING -- Pulse Period < (Rise Time + Fall Time + Pulse Width) for V_V1
**** 02/20/23 23:47:46 ********* PSpice 9.2 (Mar 2000) ******** ID# 1 ********

 ** Profile: "SCHEMATIC1-Pulse-HW01"  [ D:\Drive E\University\TA\Pulse Technique\HWs\HW01\Simulation\pulse-hw01-SCHEMATIC1-Pulse-HW01


 ****     INITIAL TRANSIENT SOLUTION       TEMPERATURE =   27.000 DEG C


******************************************************************************



 NODE   VOLTAGE     NODE   VOLTAGE     NODE   VOLTAGE     NODE   VOLTAGE


(N00727)   -1.0000 (N00781)    -.4000 (N00811)    -.2000 




    VOLTAGE SOURCE CURRENTS
    NAME         CURRENT

    V_V1         6.000E-04

    TOTAL POWER DISSIPATION   6.00E-04  WATTS


ERROR -- Time step =  2.131E-12 is too small in Transient Analysis at
Time =  678.0E-09.  Minimum allowable step size =  10.00E-12.
         The device which is changing too fast is C_C2.



  Last node voltages tried were:

 NODE   VOLTAGE     NODE   VOLTAGE     NODE   VOLTAGE     NODE   VOLTAGE


(N00727)    -.8313 (N00781)    -.5542 (N00811)    -.8312 

