
**** 11/29/21 12:55:08 ********* PSpice 9.2 (Mar 2000) ******** ID# 1 ********

 ** Profile: "SCHEMATIC1-Elec1_Lab9"  [ E:\UNIVERSITY\ELECTERICAL\LABS\ELECTRONICS 1\REPORTS\LAB9\SIMULATION\elec1_lab9-SCHEMATIC1-El


 ****     CIRCUIT DESCRIPTION


******************************************************************************




** Creating circuit file "elec1_lab9-SCHEMATIC1-Elec1_Lab9.sim.cir" 
** WARNING: THIS AUTOMATICALLY GENERATED FILE MAY BE OVERWRITTEN BY SUBSEQUENT SIMULATIONS

*Libraries: 
* Local Libraries :
* From [PSPICE NETLIST] section of C:\Program Files\Orcad\PSpice\PSpice.ini file:
.lib "nom.lib" 

*Analysis directives: 
.AC DEC 1K -100K -1
-----------$
ERROR -- Invalid value
.PROBE V(*) I(*) W(*) D(*) NOISE(*) 
.INC ".\elec1_lab9-SCHEMATIC1.net" 



**** INCLUDING elec1_lab9-SCHEMATIC1.net ****
* source ELEC1_LAB9
Q_Q1         N00161 N00219 N00190 BC107A 
R_R1         N00161 N00279  5.6k  
R_R2         0 N00190  1k  
V_V8         N03769 0 DC 0Vdc AC 1Vac 
R_R3         N00219 N00279  100k  
V_V2         N00279 0 12Vdc
R_R4         0 N00219  18k  
C_C6         N03769 N00219  1u  
C_C1         0 N00190  1u  
C_C7         N00161 N04148  1u  
R_R8         0 N04148  10k  

**** RESUMING elec1_lab9-SCHEMATIC1-Elec1_Lab9.sim.cir ****
.END
