
**** 02/16/20 23:26:49 ********* PSpice 9.2 (Mar 2000) ******** ID# 0 ********

 ** Profile: "SCHEMATIC1-h"  [ E:\UNIVERSITY\Electronics 2\LAB\3rd\currentmirror-SCHEMATIC1-h.sim ] 


 ****     CIRCUIT DESCRIPTION


******************************************************************************




** Creating circuit file "currentmirror-SCHEMATIC1-h.sim.cir" 
** WARNING: THIS AUTOMATICALLY GENERATED FILE MAY BE OVERWRITTEN BY SUBSEQUENT SIMULATIONS

*Libraries: 
* Local Libraries :
* From [PSPICE NETLIST] section of h:\softwares\orcad\new\PSpice\PSpice.ini file:
.lib "nom.lib" 

*Analysis directives: 
.AC DEC 10 10 1gig
.PROBE V(*) I(*) W(*) D(*) NOISE(*) 
.INC ".\currentmirror-SCHEMATIC1.net" 



**** INCLUDING currentmirror-SCHEMATIC1.net ****
* source CURRENTMIRROR
Q_Q1         N00517 N00653 N000032 BC107A 
R_R3         N01735 N00653  6.8k  
R_R4         N00967 N02191  39k  
Q_Q2         VOUT N00967 0 BC107A 
R_R5         0 N00967  2.7k  
Q_Q3         N00517 N00517 N00379 BC558A 
C_C1         N00967 VIN  1u  
Q_Q4         VOUT N00517 N00379 BC558A 
V_V1         N00379 0 10
V_V2         0 N01735 10
V_V2         N02191 0 10
$
ERROR -- Name "V_V2" is defined more than once
V_V3         VIN 0 DC 0Vdc AC 1Vac 
R_R1         N01735 N000032  1.5k  
R_R2         0 N00653  10k  

**** RESUMING currentmirror-SCHEMATIC1-h.sim.cir ****
.END
