
**** 04/06/22 19:56:32 ********* PSpice 9.2 (Mar 2000) ******** ID# 1 ********

 ** Profile: "SCHEMATIC1-Pulse_HW04"  [ E:\University\Electerical\Pulse Technique\Dr Ahmadifard\Spring 00-01\HW\HW04\Simulation\pulse


 ****     CIRCUIT DESCRIPTION


******************************************************************************




** Creating circuit file "pulse_hw04-SCHEMATIC1-Pulse_HW04.sim.cir" 
** WARNING: THIS AUTOMATICALLY GENERATED FILE MAY BE OVERWRITTEN BY SUBSEQUENT SIMULATIONS

*Libraries: 
* Local Libraries :
* From [PSPICE NETLIST] section of C:\Program Files\Orcad\PSpice\PSpice.ini file:
.lib "nom.lib" 

*Analysis directives: 
.DC LIN Vin 0 20 0.1 
.PROBE V(*) I(*) W(*) D(*) NOISE(*) 
.INC ".\pulse_hw04-SCHEMATIC1.net" 



**** INCLUDING pulse_hw04-SCHEMATIC1.net ****
* source PULSE_HW04
R_R1         N00843 N00903  0.5k  
R_R2         N01888 N01423  1k  
R_R3         N01888 N01372  2k  
V_V5         0 N01888 5Vdc
Q_Q3         N00843 VIN N00995 Q2N2222A/ZTX 
Q_Q4         N00995 N01548 N01372 Q2N2222A/ZTX 
R_R5         N01888 N01548  27k  
Q_Q5         VOUT N00903 N00995 Q2N2222A/ZTX 
Q_Q6         N00995 N01548 N01423 Q2N2222A/ZTX 
R_R7         N00843 N00961  1.4k  
R_R8         VOUT N00961  1k  
R_R9         0 N01548  23k  
V_V1         N00961 0 10Vdc
V_V8         VIN 0  
+SIN 0 1 100 0 0 0

**** RESUMING pulse_hw04-SCHEMATIC1-Pulse_HW04.sim.cir ****
.END


ERROR -- DC device Vin is undefined