
**** 04/07/22 12:48:29 ********* PSpice 9.2 (Mar 2000) ******** ID# 1 ********

 ** Profile: "SCHEMATIC1-Pulse_HW04"  [ e:\university\electerical\pulse technique\dr ahmadifard\spring 00-01\hw\hw04\simulation\pulse


 ****     CIRCUIT DESCRIPTION


******************************************************************************




** Creating circuit file "pulse_hw04-schematic1-pulse_hw04.sim.cir" 
** WARNING: THIS AUTOMATICALLY GENERATED FILE MAY BE OVERWRITTEN BY SUBSEQUENT SIMULATIONS

*Libraries: 
* Local Libraries :
* From [PSPICE NETLIST] section of C:\Program Files\Orcad\PSpice\PSpice.ini file:
.lib "nom.lib" 

*Analysis directives: 
.DC LIN PARAM vdc 0V 7V 0.1V 
.PROBE V(*) I(*) W(*) D(*) NOISE(*) 
.INC ".\pulse_hw04-SCHEMATIC1.net" 



**** INCLUDING pulse_hw04-SCHEMATIC1.net ****
* source PULSE_HW04
R_R1         N00843 N00903  0.5k  
R_R2         N01888 N01423  1k  
R_R3         N01888 N01372  2k  
V_V5         0 N01888 5Vdc
Q_Q3         N00843 VIN N00995 Q2N2222A/ZTX 
Q_Q4         N00995 N01548 N01372 Q2N2222A/ZTX 
R_R5         N01888 N01548  27k  
Q_Q5         VOUT N00903 N00995 Q2N2222A/ZTX 
Q_Q6         N00995 N01548 N01423 Q2N2222A/ZTX 
R_R7         N00843 N00961  1.4k  
R_R8         VOUT N00961  1k  
R_R9         0 N01548  23k  
V_V1         N00961 0 10Vdc
V_Vin         VIN 0  
+SIN {vdc} 1 100 0 0 0
.PARAM  vdc=1

**** RESUMING pulse_hw04-schematic1-pulse_hw04.sim.cir ****
.END

**** 04/07/22 12:48:29 ********* PSpice 9.2 (Mar 2000) ******** ID# 1 ********

 ** Profile: "SCHEMATIC1-Pulse_HW04"  [ e:\university\electerical\pulse technique\dr ahmadifard\spring 00-01\hw\hw04\simulation\pulse


 ****     BJT MODEL PARAMETERS


******************************************************************************




               Q2N2222A/ZTX    
               NPN             
          IS   30.611000E-15 
          BF  220            
          NF    1.00124      
         VAF  104            
         IKF     .52         
         ISE    7.500000E-15 
          NE    1.41         
          BR    4            
          NR    1.005        
         VAR   28            
         IKR     .24         
         ISC   10.652500E-12 
          NC    1.3728       
          RB     .13         
          RE     .22         
          RC     .12         
         CJE   27.010000E-12 
         CJC    9.120000E-12 
         VJC     .4089       
         MJC     .3508       
          TF  325.000000E-12 
          TR  100.000000E-09 
          CN    2.42         
           D     .87         



          JOB CONCLUDED

          TOTAL JOB TIME             .05
