
**** 10/26/20 07:50:22 ********* PSpice 9.2 (Mar 2000) ******** ID# 0 ********

 ** Profile: "SCHEMATIC1-kjk"  [ E:\University\Communication Circuits\LAB\3\az3-SCHEMATIC1-kjk.sim ] 


 ****     CIRCUIT DESCRIPTION


******************************************************************************




** Creating circuit file "az3-SCHEMATIC1-kjk.sim.cir" 
** WARNING: THIS AUTOMATICALLY GENERATED FILE MAY BE OVERWRITTEN BY SUBSEQUENT SIMULATIONS

*Libraries: 
* Local Libraries :
* From [PSPICE NETLIST] section of h:\softwares\orcad\new\PSpice\PSpice.ini file:
.lib "nom.lib" 

*Analysis directives: 
.TRAN  0 1000ns 0 
.PROBE V(*) I(*) W(*) D(*) NOISE(*) 
.INC ".\az3-SCHEMATIC1.net" 



**** INCLUDING az3-SCHEMATIC1.net ****
* source AZ3
R_R3         N02927 0  680  
R_R4          1k  
------------------$
ERROR -- Missing node
Q_Q2         VOUT N00429 N03166 Q2N2222
V_V1         N01558 0 10
C_C2         N01265 VOUT  33n  
C_C3         0 N01265  3.3n  
C_C4         0 N00429  1000u  
L_L1         N01558 VOUT  8.2u  
L_L2         N01265 N02927  820u  
R_R6         N01265 N03166  47  
R_R1         N00429 N01558  1k  
R_R2         0 N00429  2.6k  

**** RESUMING az3-SCHEMATIC1-kjk.sim.cir ****
.END
