
**** 02/17/22 17:25:16 ********* PSpice 9.2 (Mar 2000) ******** ID# 1 ********

 ** Profile: "SCHEMATIC1-Pulse_HW01"  [ E:\UNIVERSITY\ELECTERICAL\Pulse Technique\Dr Ahmadifard\HW\HW01\Simulation\pulse_hw01-SCHEMAT


 ****     CIRCUIT DESCRIPTION


******************************************************************************




** Creating circuit file "pulse_hw01-SCHEMATIC1-Pulse_HW01.sim.cir" 
** WARNING: THIS AUTOMATICALLY GENERATED FILE MAY BE OVERWRITTEN BY SUBSEQUENT SIMULATIONS

*Libraries: 
* Local Libraries :
* From [PSPICE NETLIST] section of C:\Program Files\Orcad\PSpice\PSpice.ini file:
.lib "nom.lib" 

*Analysis directives: 
.TRAN  0 1000ns 0 
.PROBE V(*) I(*) W(*) D(*) NOISE(*) 
.INC ".\pulse_hw01-SCHEMATIC1.net" 



**** INCLUDING pulse_hw01-SCHEMATIC1.net ****
* source PULSE_HW01
R_R1         N00275 N00091  1k  
R_R2         N00091 N00138  1k  
C_C1         N00168 N00091  1n  
C_C2         N00168 N00138  1n  
V_V1         N00275 N00168  
+PULSE 0 10 0 0 0 5 0

**** RESUMING pulse_hw01-SCHEMATIC1-Pulse_HW01.sim.cir ****
.END

ERROR -- Node N00275 is floating
ERROR -- Node N00091 is floating
ERROR -- Node N00138 is floating
ERROR -- Node N00168 is floating