
**** 02/17/22 17:57:21 ********* PSpice 9.2 (Mar 2000) ******** ID# 1 ********

 ** Profile: "SCHEMATIC1-Pulse_HW01"  [ E:\UNIVERSITY\ELECTERICAL\Pulse Technique\Dr Ahmadifard\HW\HW01\Simulation\pulse_hw01-SCHEMAT


 ****     CIRCUIT DESCRIPTION


******************************************************************************




** Creating circuit file "pulse_hw01-SCHEMATIC1-Pulse_HW01.sim.cir" 
** WARNING: THIS AUTOMATICALLY GENERATED FILE MAY BE OVERWRITTEN BY SUBSEQUENT SIMULATIONS

*Libraries: 
* Local Libraries :
* From [PSPICE NETLIST] section of C:\Program Files\Orcad\PSpice\PSpice.ini file:
.lib "nom.lib" 

*Analysis directives: 
.TRAN  0 20ms 0 
.PROBE V(*) I(*) W(*) D(*) NOISE(*) 
.INC ".\pulse_hw01-SCHEMATIC1.net" 



**** INCLUDING pulse_hw01-SCHEMATIC1.net ****
* source PULSE_HW01
C_C5         N02673 N02585  10n  
R_R6         0 N02585  100  
V_V3         N02673 0  
+PULSE 0 10 0 1n 1n 10m 0

**** RESUMING pulse_hw01-SCHEMATIC1-Pulse_HW01.sim.cir ****
.END

**** 02/17/22 17:57:21 ********* PSpice 9.2 (Mar 2000) ******** ID# 1 ********

 ** Profile: "SCHEMATIC1-Pulse_HW01"  [ E:\UNIVERSITY\ELECTERICAL\Pulse Technique\Dr Ahmadifard\HW\HW01\Simulation\pulse_hw01-SCHEMAT


 ****     INITIAL TRANSIENT SOLUTION       TEMPERATURE =   27.000 DEG C


******************************************************************************



 NODE   VOLTAGE     NODE   VOLTAGE     NODE   VOLTAGE     NODE   VOLTAGE


(N02585)    0.0000 (N02673)    0.0000 




    VOLTAGE SOURCE CURRENTS
    NAME         CURRENT

    V_V3         0.000E+00

    TOTAL POWER DISSIPATION   0.00E+00  WATTS



          JOB CONCLUDED

          TOTAL JOB TIME             .02
