
**** 11/02/21 19:28:40 ********* PSpice 9.2 (Mar 2000) ******** ID# 1 ********

 ** Profile: "SCHEMATIC1-Elec1_Lab5"  [ E:\UNIVERSITY\ELECTERICAL\LABS\ELECTRONICS 1\REPORTS\LAB5\elec1_lab5-SCHEMATIC1-Elec1_Lab5.si


 ****     CIRCUIT DESCRIPTION


******************************************************************************




** Creating circuit file "elec1_lab5-SCHEMATIC1-Elec1_Lab5.sim.cir" 
** WARNING: THIS AUTOMATICALLY GENERATED FILE MAY BE OVERWRITTEN BY SUBSEQUENT SIMULATIONS

*Libraries: 
* Local Libraries :
* From [PSPICE NETLIST] section of C:\Program Files\Orcad\PSpice\PSpice.ini file:
.lib "nom.lib" 

*Analysis directives: 
.PROBE V(*) I(*) W(*) D(*) NOISE(*) 
.INC ".\elec1_lab5-SCHEMATIC1.net" 



**** INCLUDING elec1_lab5-SCHEMATIC1.net ****
* source ELEC1_LAB5
V_V1         N00125 N00185 0Vdc
R_R1         N00125 N00155  220  
D_D1         N00185 N00155 D04AZ6_2 
R_R2         N00185 N00155  1k  

**** RESUMING elec1_lab5-SCHEMATIC1-Elec1_Lab5.sim.cir ****
.END

ERROR -- Node N00125 is floating
ERROR -- Node N00185 is floating
ERROR -- Node N00155 is floating