$DATA1 SOURCE='HSPICE' VERSION='D-2010.03-SP1 32-BIT'
.TITLE 'reza adinepour - 9814303 - elec3-hw04-q1'
 gain             fu               temper           alter#            
  350.2532           failed          25.0000        1                 
