
**** 03/04/22 18:26:26 ********* PSpice 9.2 (Mar 2000) ******** ID# 1 ********

 ** Profile: "SCHEMATIC1-Elec2_Lab4"  [ e:\university\electerical\labs\electronics 1\reports\lab4\simulation\elec2_lab4-schematic1-el


 ****     CIRCUIT DESCRIPTION


******************************************************************************




** Creating circuit file "elec2_lab4-schematic1-elec2_lab4.sim.cir" 
** WARNING: THIS AUTOMATICALLY GENERATED FILE MAY BE OVERWRITTEN BY SUBSEQUENT SIMULATIONS

*Libraries: 
* Local Libraries :
* From [PSPICE NETLIST] section of C:\Program Files\Orcad\PSpice\PSpice.ini file:
.lib "nom.lib" 

*Analysis directives: 
.TRAN  0 30m 0 
.PROBE V(*) I(*) W(*) D(*) NOISE(*) 
.INC ".\elec2_lab4-SCHEMATIC1.net" 



**** INCLUDING elec2_lab4-SCHEMATIC1.net ****
* source ELEC2_LAB4
D_D1         N00125 VOUT D1N4148 
D_D2         N00152 VOUT D1N4148 
D_D3         0 N00125 D1N4148 
D_D4         0 N00152 D1N4148 
R_R1         0 VOUT  100k  
V_V1         N00125 N00152  
+SIN 0 8 500 0 0 0
C_C1         0 VOUT  470u  

**** RESUMING elec2_lab4-schematic1-elec2_lab4.sim.cir ****
.END

**** 03/04/22 18:26:26 ********* PSpice 9.2 (Mar 2000) ******** ID# 1 ********

 ** Profile: "SCHEMATIC1-Elec2_Lab4"  [ e:\university\electerical\labs\electronics 1\reports\lab4\simulation\elec2_lab4-schematic1-el


 ****     Diode MODEL PARAMETERS


******************************************************************************




               D1N4148         
          IS    2.682000E-09 
           N    1.836        
         ISR    1.565000E-09 
         IKF     .04417      
          BV  100            
         IBV  100.000000E-06 
          RS     .5664       
          TT   11.540000E-09 
         CJO    4.000000E-12 
          VJ     .5          
           M     .3333       


**** 03/04/22 18:26:26 ********* PSpice 9.2 (Mar 2000) ******** ID# 1 ********

 ** Profile: "SCHEMATIC1-Elec2_Lab4"  [ e:\university\electerical\labs\electronics 1\reports\lab4\simulation\elec2_lab4-schematic1-el


 ****     INITIAL TRANSIENT SOLUTION       TEMPERATURE =   27.000 DEG C


******************************************************************************



 NODE   VOLTAGE     NODE   VOLTAGE     NODE   VOLTAGE     NODE   VOLTAGE


( VOUT)-2.567E-18  (N00125)-1.283E-18 (N00152)-1.283E-18 




    VOLTAGE SOURCE CURRENTS
    NAME         CURRENT

    V_V1         0.000E+00

    TOTAL POWER DISSIPATION   0.00E+00  WATTS



          JOB CONCLUDED

          TOTAL JOB TIME             .03
