
**** 11/14/21 22:00:58 ********* PSpice 9.2 (Mar 2000) ******** ID# 1 ********

 ** Profile: "SCHEMATIC1-Elec1_Lab7"  [ E:\UNIVERSITY\ELECTERICAL\LABS\ELECTRONICS 1\REPORTS\LAB7\SIMULATION\elec1_lab7-SCHEMATIC1-El


 ****     CIRCUIT DESCRIPTION


******************************************************************************




** Creating circuit file "elec1_lab7-SCHEMATIC1-Elec1_Lab7.sim.cir" 
** WARNING: THIS AUTOMATICALLY GENERATED FILE MAY BE OVERWRITTEN BY SUBSEQUENT SIMULATIONS

*Libraries: 
* Local Libraries :
* From [PSPICE NETLIST] section of C:\Program Files\Orcad\PSpice\PSpice.ini file:
.lib "nom.lib" 

*Analysis directives: 
.DC LIN PARAM V1 15 0 1 
.PROBE V(*) I(*) W(*) D(*) NOISE(*) 
.INC ".\elec1_lab7-SCHEMATIC1.net" 



**** INCLUDING elec1_lab7-SCHEMATIC1.net ****
* source ELEC1_LAB7
Q_Q1         N00129 N00192 0 BC107A 
R_R1         VB N00192  470  
V_V1         VB 0 8
R_R2         N00165 N00129  1k  
D_D1         N03169 N00165 D1N4148 
V_V3         N03169 0  
+SIN 0 10 100 0 0 0

**** RESUMING elec1_lab7-SCHEMATIC1-Elec1_Lab7.sim.cir ****
.END


ERROR -- Undefined parameter: V1