
**** 11/22/20 18:49:07 ********* PSpice 9.2 (Mar 2000) ******** ID# 1 ********

 ** Profile: "SCHEMATIC1-try1"  [ C:\Users\Reza\Desktop\az mokh\Pspice\project7-SCHEMATIC1-try1.sim ] 


 ****     CIRCUIT DESCRIPTION


******************************************************************************




** Creating circuit file "project7-SCHEMATIC1-try1.sim.cir" 
** WARNING: THIS AUTOMATICALLY GENERATED FILE MAY BE OVERWRITTEN BY SUBSEQUENT SIMULATIONS

*Libraries: 
* Local Libraries :
* From [PSPICE NETLIST] section of C:\Program Files\Orcad\PSpice\PSpice.ini file:
.lib "nom.lib" 

*Analysis directives: 
.TRAN  0 10m 10n 
.PROBE V(*) I(*) W(*) D(*) NOISE(*) 
.INC ".\project7-SCHEMATIC1.net" 



**** INCLUDING project7-SCHEMATIC1.net ****
* source PROJECT7
R_R4         N00329 N00392  1k  
V_V5         N02471 0  
+SIN 0 0.1 2k 0 0 0
V_V1         N00392 0 10
R_R5         N00673 N02216  1000k  
C_C1         N00329 N00392  1.5n  
V_V2         0 N00624 10
R_R6         0 N00673  2000k  
C_C2         N01829 N00469  1n  
C_C3         N02471 N00673  100n  
V_V4         N02293 0  
+SIN 0 1 455k 0 0 0
Q_Q1         N00329 N02293 N00469 Q2N2222A/ZTX 
Q_Q2         N00469 N00528 N00560 Q2N2222A/ZTX 
L_L1         N00329 N00392  82uH  
R_R1         N00624 N00560  0.47k  
V_V3         N02216 0 10
R_R2         N00624 N00528  1k  
R_R3         0 N00528  5.6k  

**** RESUMING project7-SCHEMATIC1-try1.sim.cir ****
.END

ERROR -- Less than 2 connections at node N01829
ERROR -- Node N01829 is floating