
**** 05/30/21 20:09:02 ********* PSpice 9.2 (Mar 2000) ******** ID# 0 ********

 ** Profile: "SCHEMATIC1-vr"  [ e:\university\electronics 3\lab\5th\sim\gwg-schematic1-vr.sim ] 


 ****     CIRCUIT DESCRIPTION


******************************************************************************




** Creating circuit file "gwg-schematic1-vr.sim.cir" 
** WARNING: THIS AUTOMATICALLY GENERATED FILE MAY BE OVERWRITTEN BY SUBSEQUENT SIMULATIONS

*Libraries: 
* Local Libraries :
* From [PSPICE NETLIST] section of h:\softwares\orcad\new\PSpice\PSpice.ini file:
.lib "nom.lib" 

*Analysis directives: 
.TRAN  0 20ms 0 
.PROBE V(*) I(*) W(*) D(*) NOISE(*) 
.INC ".\gwg-SCHEMATIC1.net" 



**** INCLUDING gwg-SCHEMATIC1.net ****
* source GWG
R_R3         VIN N04767  0.4679  
C_C4         VIN N04767  0.11  
C_C3         N04767 N04984  0.077  
R_R4         N04767 N04984  27.67  
V_V1         VIN 0  
+PULSE 0mv 1mv 0 0 0 10ms 10ms
R_R2         N04452 VOUT  47k  
R_R1         N04984 N04329  33k  
R_R11         N04329 N04356  33k  
R_R22         N04356 N04452  47k  
C_C2         N04329 N04356  1u  
C_C1         N04452 VOUT  1u  
E_U5         N04984 0 VALUE {LIMIT(V(0,N04767)*1E6,-15V,+15V)}

**** RESUMING gwg-schematic1-vr.sim.cir ****
.END

WARNING -- Pulse Period < (Rise Time + Fall Time + Pulse Width) for V_V1
**** 05/30/21 20:09:02 ********* PSpice 9.2 (Mar 2000) ******** ID# 0 ********

 ** Profile: "SCHEMATIC1-vr"  [ e:\university\electronics 3\lab\5th\sim\gwg-schematic1-vr.sim ] 


 ****     INITIAL TRANSIENT SOLUTION       TEMPERATURE =   27.000 DEG C


******************************************************************************



 NODE   VOLTAGE     NODE   VOLTAGE     NODE   VOLTAGE     NODE   VOLTAGE


(  VIN)    0.0000  ( VOUT)    0.0000  (N04329)    0.0000 (N04356)    0.0000     

(N04452)    0.0000 (N04767)    0.0000 (N04984)    0.0000 




    VOLTAGE SOURCE CURRENTS
    NAME         CURRENT

    V_V1         0.000E+00

    TOTAL POWER DISSIPATION   0.00E+00  WATTS



          JOB CONCLUDED

          TOTAL JOB TIME             .02
