
**** 04/22/22 17:22:12 ********* PSpice 9.2 (Mar 2000) ******** ID# 1 ********

 ** Profile: "SCHEMATIC1-Pulse_HW06"  [ E:\UNIVERSITY\ELECTERICAL\PULSE TECHNIQUE\DR AHMADIFARD\SPRING 00-01\HW\HW06\Simulation\8-9\p


 ****     CIRCUIT DESCRIPTION


******************************************************************************




** Creating circuit file "pulse_hw06-SCHEMATIC1-Pulse_HW06.sim.cir" 
** WARNING: THIS AUTOMATICALLY GENERATED FILE MAY BE OVERWRITTEN BY SUBSEQUENT SIMULATIONS

*Libraries: 
* Local Libraries :
* From [PSPICE NETLIST] section of C:\Program Files\Orcad\PSpice\PSpice.ini file:
.lib "nom.lib" 

*Analysis directives: 
.DC LIN V_V6 1V 20V 1V 
.PROBE V(*) I(*) W(*) D(*) NOISE(*) 
.INC ".\pulse_hw06-SCHEMATIC1.net" 



**** INCLUDING pulse_hw06-SCHEMATIC1.net ****
* source PULSE_HW06
Q_Q2         N00697 N00503 0 Q2N1420
V_V5         N01247 0 12Vdc
Q_Q1         N00668 N00467 0 Q2N1420
V_V10         N00467 0  
+SIN 0 0.5m 50 0 0 0
R_R1         N00697 N01247  2k  
R_R2         N00668 N01247  2k  
R_R4         N00467 N00697  50k  
V_V6         N01639 0 16Vdc
R_R5         N00503 N01639  50k  
C_C1         N00668 N00503  0.01u  

**** RESUMING pulse_hw06-SCHEMATIC1-Pulse_HW06.sim.cir ****
.END

**** 04/22/22 17:22:12 ********* PSpice 9.2 (Mar 2000) ******** ID# 1 ********

 ** Profile: "SCHEMATIC1-Pulse_HW06"  [ E:\UNIVERSITY\ELECTERICAL\PULSE TECHNIQUE\DR AHMADIFARD\SPRING 00-01\HW\HW06\Simulation\8-9\p


 ****     BJT MODEL PARAMETERS


******************************************************************************




               Q2N1420         
               NPN             
          IS   14.340000E-15 
          BF  255.9          
          NF    1            
         VAF   74.03         
         IKF     .2847       
         ISE   14.340000E-15 
          NE    1.307        
          BR    6.092        
          NR    1            
          RB   10            
          RC    1            
         CJE   22.010000E-12 
         MJE     .377        
         CJC    9.393000E-12 
         MJC     .3416       
          TF  410.000000E-12 
         XTF    3            
         VTF    1.7          
         ITF     .6          
          TR   46.910000E-09 
         XTB    1.5          
          CN    2.42         
           D     .87         



          JOB CONCLUDED

          TOTAL JOB TIME             .02
