
**** 03/17/22 17:11:32 ********* PSpice 9.2 (Mar 2000) ******** ID# 1 ********

 ** Profile: "SCHEMATIC1-Pulse_HW03"  [ E:\University\Electerical\Pulse Technique\Dr Ahmadifard\Spring 00-01\HW\HW03\Simulation\pulse


 ****     CIRCUIT DESCRIPTION


******************************************************************************




** Creating circuit file "pulse_hw03-SCHEMATIC1-Pulse_HW03.sim.cir" 
** WARNING: THIS AUTOMATICALLY GENERATED FILE MAY BE OVERWRITTEN BY SUBSEQUENT SIMULATIONS

*Libraries: 
* Local Libraries :
* From [PSPICE NETLIST] section of C:\Program Files\Orcad\PSpice\PSpice.ini file:
.lib "nom.lib" 

*Analysis directives: 
.DC LIN V_V6 -5V 20V 0.01V 
.PROBE V(*) I(*) W(*) D(*) NOISE(*) 
.INC ".\pulse_hw03-SCHEMATIC1.net" 



**** INCLUDING pulse_hw03-SCHEMATIC1.net ****
* source PULSE_HW03
R_R12         0 N02333  10k  
X_U1         N02333 N02590 N01987 0 N02478 LM741
V_V6         N02590 0 0Vdc
V_V5         N02303 0 5Vdc
V_V4         N01987 0 12Vdc
R_R10         N02333 N02478  100k  
R_R11         N02303 N02333  10k  

**** RESUMING pulse_hw03-SCHEMATIC1-Pulse_HW03.sim.cir ****
.END

**** 03/17/22 17:11:32 ********* PSpice 9.2 (Mar 2000) ******** ID# 1 ********

 ** Profile: "SCHEMATIC1-Pulse_HW03"  [ E:\University\Electerical\Pulse Technique\Dr Ahmadifard\Spring 00-01\HW\HW03\Simulation\pulse


 ****     Diode MODEL PARAMETERS


******************************************************************************




               X_U1.x_lm741.dx X_U1.x_lm741.dy 
          IS  800.000000E-18  800.000000E-18 
          RS    1               1.000000E-03 
         CJO                   10.000000E-12 


**** 03/17/22 17:11:32 ********* PSpice 9.2 (Mar 2000) ******** ID# 1 ********

 ** Profile: "SCHEMATIC1-Pulse_HW03"  [ E:\University\Electerical\Pulse Technique\Dr Ahmadifard\Spring 00-01\HW\HW03\Simulation\pulse


 ****     BJT MODEL PARAMETERS


******************************************************************************




               X_U1.x_lm741.qx 
               NPN             
          IS  800.000000E-18 
          BF   93.75         
          NF    1            
          BR    1            
          NR    1            
          CN    2.42         
           D     .87         



          JOB CONCLUDED

          TOTAL JOB TIME             .16
